
Running OpenFOAM Analysis...
Height,0.003,InletHeight,0.5,InletLength,0.001,InletOffset,-0.5,Length,0.01,OutletHeight,1,OutletLength,0.001,OutletOffset,0.5,Thickness,0.00025,Width,0.0125,blockMeshRes,50,deltaT,1,endTime,50,inletTemp,400,inletVelocity,2.5,meshRes,0.0004,writeInterval,4 results/case_0/mesh results/case_0/openfoam/results.tgz results/case_0/openfoam/metrics.csv results/case_0/openfoam/png

Replacing parameters:
Height 0.003
InletHeight 0.5
InletLength 0.001
InletOffset -0.5
Length 0.01
OutletHeight 1
OutletLength 0.001
OutletOffset 0.5
Thickness 0.00025
Width 0.0125
blockMeshRes 50
deltaT 1
endTime 50
inletTemp 400
inletVelocity 2.5
meshRes 0.0004
writeInterval 4
Done replacing parameters
docker run --rm --user root -i -v /home/ubuntu/alvaro/fsi/workflow/swiftwork/main-run002/jobs/r/runOpenFOAM-480dhren-0/models/openfoam:/scratch -w /scratch parallelworks/openfoam:4.1_paraview ./runOpenFOAM.sh
/*---------------------------------------------------------------------------*\
| =========                 |                                                 |
| \\      /  F ield         | OpenFOAM: The Open Source CFD Toolbox           |
|  \\    /   O peration     | Version:  4.1                                   |
|   \\  /    A nd           | Web:      www.OpenFOAM.org                      |
|    \\/     M anipulation  |                                                 |
\*---------------------------------------------------------------------------*/
Build  : 4.1
Exec   : blockMesh -dict system/blockMeshDict
Date   : Oct 02 2017
Time   : 22:36:01
Host   : "ced4af2d38bb"
PID    : 145
Case   : //scratch
nProcs : 1
sigFpe : Enabling floating point exception trapping (FOAM_SIGFPE).
fileModificationChecking : Monitoring run-time modified files using timeStampMaster
allowSystemOperations : Allowing user-supplied system call operations

// * * * * * * * * * * * * * * * * * * * * * * * * * * * * * * * * * * * * * //
Create time

Creating block mesh from
    "//scratch/system/blockMeshDict"
Creating curved edges
Creating topology blocks
Creating topology patches

Reading patches section

Creating block mesh topology

Reading physicalType from existing boundary file

Default patch type set to empty

Check topology

	Basic statistics
		Number of internal faces : 0
		Number of boundary faces : 6
		Number of defined boundary faces : 6
		Number of undefined boundary faces : 0
	Checking patch -> block consistency

Creating block offsets
Creating merge list .

Creating polyMesh from blockMesh
Creating patches
Creating cells
Creating points with scale 1
    Block 0 cell size :
        i : 0.0003 .. 0.0003
        j : 0.00035 .. 0.00035
        k : 0.00015 .. 0.00015


Writing polyMesh
----------------
Mesh Information
----------------
  boundingBox: (-0.007499999888 -0.008500000052 -0.0025) (0.007500000112 0.008999999948 0.005)
  nPoints: 132651
  nCells: 125000
  nFaces: 382500
  nInternalFaces: 367500
----------------
Patches
----------------
  patch 0 (start: 367500 size: 2500) name: ffminx
  patch 1 (start: 370000 size: 2500) name: ffmaxx
  patch 2 (start: 372500 size: 2500) name: ffminy
  patch 3 (start: 375000 size: 2500) name: ffmaxy
  patch 4 (start: 377500 size: 2500) name: ffminz
  patch 5 (start: 380000 size: 2500) name: ffmaxz

End

/*---------------------------------------------------------------------------*\
| =========                 |                                                 |
| \\      /  F ield         | OpenFOAM: The Open Source CFD Toolbox           |
|  \\    /   O peration     | Version:  4.1                                   |
|   \\  /    A nd           | Web:      www.OpenFOAM.org                      |
|    \\/     M anipulation  |                                                 |
\*---------------------------------------------------------------------------*/
Build  : 4.1
Exec   : decomposePar -force -noFunctionObjects
Date   : Oct 02 2017
Time   : 22:36:02
Host   : "ced4af2d38bb"
PID    : 146
Case   : //scratch
nProcs : 1
sigFpe : Enabling floating point exception trapping (FOAM_SIGFPE).
fileModificationChecking : Monitoring run-time modified files using timeStampMaster
allowSystemOperations : Allowing user-supplied system call operations

// * * * * * * * * * * * * * * * * * * * * * * * * * * * * * * * * * * * * * //
Create time



Decomposing mesh region0

Create mesh

Calculating distribution of cells
Selecting decompositionMethod scotch

Finished decomposition in 0.32 s

Calculating original mesh data

Distributing cells to processors

Distributing faces to processors

Distributing points to processors

Constructing processor meshes

Processor 0
    Number of cells = 62249
    Number of faces shared with processor 1 = 2863
    Number of processor patches = 1
    Number of processor faces = 2863
    Number of boundary faces = 7463

Processor 1
    Number of cells = 62751
    Number of faces shared with processor 0 = 2863
    Number of processor patches = 1
    Number of processor faces = 2863
    Number of boundary faces = 7537

Number of processor faces = 2863
Max number of cells = 62751 (0.4016% above average 62500)
Max number of processor patches = 1 (0% above average 1)
Max number of faces between processors = 2863 (0% above average 2863)

Time = 0

Processor 0: field transfer
Processor 1: field transfer

End

/*---------------------------------------------------------------------------*\
| =========                 |                                                 |
| \\      /  F ield         | OpenFOAM: The Open Source CFD Toolbox           |
|  \\    /   O peration     | Version:  4.1                                   |
|   \\  /    A nd           | Web:      www.OpenFOAM.org                      |
|    \\/     M anipulation  |                                                 |
\*---------------------------------------------------------------------------*/
Build  : 4.1
Exec   : snappyHexMesh -parallel -overwrite
Date   : Oct 02 2017
Time   : 22:36:04
Host   : "ced4af2d38bb"
PID    : 149
Case   : //scratch
nProcs : 2
Slaves : 1("ced4af2d38bb.150")
Pstream initialized with:
    floatTransfer      : 0
    nProcsSimpleSum    : 0
    commsType          : nonBlocking
    polling iterations : 0
sigFpe : Enabling floating point exception trapping (FOAM_SIGFPE).
fileModificationChecking : Monitoring run-time modified files using timeStampMaster
allowSystemOperations : Allowing user-supplied system call operations

// * * * * * * * * * * * * * * * * * * * * * * * * * * * * * * * * * * * * * //
Create time

Create mesh for time = 0

Read mesh in = 0.33 s

Overall mesh bounding box  : (-0.007499999888 -0.008500000052 -0.0025) (0.007500000112 0.008999999948 0.005)
Relative tolerance         : 1e-06
Absolute matching distance : 2.423839929e-08

Reading refinement surfaces.
Read refinement surfaces in = 0.01 s

Reading refinement shells.
Read refinement shells in = 0 s

Setting refinement level of surface to be consistent with shells.
Checked shell refinement in = 0 s

Reading features.
Read features in = 0 s


Determining initial surface intersections
-----------------------------------------

Edge intersection testing:
    Number of edges             : 382500
    Number of edges to retest   : 382500
    Number of intersected edges : 9933
Calculated surface intersections in = 0.44 s

Initial mesh : cells:125000  faces:382500  points:132651
Cells per refinement level:
    0	125000

Adding patches for surface regions
----------------------------------

Patch Type                Region                        
----- ----                ------                        
body:

6     wall                body                          

inlet:

7     wall                inlet                         

outlet:

8     wall                outlet                        

Added patches in = 0.04 s

Selecting decompositionMethod scotch
Layer thickness specified as final layer and expansion ratio.

Refinement phase
----------------

Found point (0 0 0.0012) in cell 32195 on processor 0

Surface refinement iteration 0
------------------------------

Marked for refinement due to surface intersection          : 15535 cells.
Determined cells to refine in = 0.54 s
Selected for refinement : 15535 cells (out of 125000)
Edge intersection testing:
    Number of edges             : 723873
    Number of edges to retest   : 420523
    Number of intersected edges : 39300
Refined mesh in = 0.92 s
After refinement surface refinement iteration 0 : cells:233745  faces:723873  points:256551
Cells per refinement level:
    0	109465
    1	124280
Skipping balancing since max unbalance 0.0118420152 is less than allowable 0.1

Surface refinement iteration 1
------------------------------

Marked for refinement due to surface intersection          : 78 cells.
Determined cells to refine in = 0.04 s
Selected for refinement : 78 cells (out of 233745)
Skipping balancing since max unbalance 0.01169058991 is less than allowable 0.1
After balancing surface refinement iteration 1 : cells:233745  faces:723873  points:256551
Cells per refinement level:
    0	109465
    1	124280
Edge intersection testing:
    Number of edges             : 725526
    Number of edges to retest   : 5892
    Number of intersected edges : 39301
Refined mesh in = 0.58 s
After refinement surface refinement iteration 1 : cells:234291  faces:725526  points:257112
Cells per refinement level:
    0	109387
    1	124904

Surface refinement iteration 2
------------------------------

Marked for refinement due to surface intersection          : 0 cells.
Determined cells to refine in = 0.04 s
Selected for refinement : 0 cells (out of 234291)
Stopping refining since too few cells selected.


Removing mesh beyond surface intersections
------------------------------------------

Found point (0 0 0.0012) in global region 0 out of 2 regions.
Keeping all cells in region 0 containing point (0 0 0.0012)
Selected for keeping : 221013 cells.
Edge intersection testing:
    Number of edges             : 694974
    Number of edges to retest   : 18564
    Number of intersected edges : 39301

Shell refinement iteration 0
----------------------------

Marked for refinement due to distance to explicit features : 0 cells.
Marked for refinement due to refinement shells             : 0 cells.
Determined cells to refine in = 1.91 s
Selected for internal refinement : 0 cells (out of 221013)
Stopping refining since too few cells selected.


Dangling coarse cells refinement iteration 0
--------------------------------------------

Determined cells to refine in = 0.01 s
Selected for refinement : 0 cells (out of 221013)
Stopping refining since too few cells selected.


Dangling coarse cells refinement iteration 0
--------------------------------------------

Determined cells to refine in = 0.01 s
Selected for refinement : 0 cells (out of 221013)
Stopping refining since too few cells selected.


Splitting mesh at surface intersections
---------------------------------------

Introducing baffles for 39301 faces that are intersected by the surface.

Edge intersection testing:
    Number of edges             : 734275
    Number of edges to retest   : 271162
    Number of intersected edges : 78602
Created baffles in = 0.5 s


After introducing baffles : cells:221013  faces:734275  points:252828
Cells per refinement level:
    0	109387
    1	111626

Introducing baffles to block off problem cells
----------------------------------------------

markFacesOnProblemCells : marked 56957 additional internal faces to be converted into baffles.
Analyzed problem cells in = 0.29 s


Introducing baffles to delete problem cells.

Edge intersection testing:
    Number of edges             : 791232
    Number of edges to retest   : 170822
    Number of intersected edges : 78602
Created baffles in = 0.49 s


After introducing baffles : cells:221013  faces:791232  points:253134
Cells per refinement level:
    0	109387
    1	111626

Remove unreachable sections of mesh
-----------------------------------

Keeping all cells in region 631 containing point (0 0 0.0012)
Selected for keeping : 46195 cells.
Edge intersection testing:
    Number of edges             : 153702
    Number of edges to retest   : 0
    Number of intersected edges : 18448
Split mesh in = 1.68 s


After subsetting : cells:46195  faces:153702  points:61409
Cells per refinement level:
    0	14568
    1	31627

Handling cells with snap problems
---------------------------------

Introducing baffles for 18448 faces that are intersected by the surface.

Edge intersection testing:
    Number of edges             : 153702
    Number of edges to retest   : 70142
    Number of intersected edges : 18448
Created baffles in = 0.11 s


After introducing baffles : cells:46195  faces:153702  points:61409
Cells per refinement level:
    0	14568
    1	31627

Introducing baffles to block off problem cells
----------------------------------------------

markFacesOnProblemCells : marked 0 additional internal faces to be converted into baffles.
Analyzed problem cells in = 0.06 s


Introducing baffles to delete problem cells.

Edge intersection testing:
    Number of edges             : 153702
    Number of edges to retest   : 0
    Number of intersected edges : 18448
Created baffles in = 0.07 s


After introducing baffles : cells:46195  faces:153702  points:61409
Cells per refinement level:
    0	14568
    1	31627

Remove unreachable sections of mesh
-----------------------------------

Keeping all cells in region 0 containing point (0 0 0.0012)
Selected for keeping : 46195 cells.
Edge intersection testing:
    Number of edges             : 153702
    Number of edges to retest   : 0
    Number of intersected edges : 18448
Split mesh in = 0.3 s


After subsetting : cells:46195  faces:153702  points:61409
Cells per refinement level:
    0	14568
    1	31627

Merge free-standing baffles
---------------------------

freeStandingBaffles : detected 0 free-standing baffles out of 0

Detected free-standing baffles : 0
Merged free-standing baffles in = 0.04 s


dupNonManifoldPoints : Found : 0 non-manifold points (out of 62556)
Edge intersection testing:
    Number of edges             : 153702
    Number of edges to retest   : 0
    Number of intersected edges : 18448
Detected unsplittable baffles : 0

Merge refined boundary faces
----------------------------

Merging 0 sets of faces.

No faces merged ...

Merging all points on surface that
- are used by only two boundary faces and
- make an angle with a cosine of more than 0.7071067812.

No straight edges simplified and no points removed ...

Doing final balancing
---------------------

Found 0 zoned faces to keep together.
Found 0 separated coupled faces to keep together.
Refined mesh : cells:46195  faces:153702  points:61409
Cells per refinement level:
    0	14568
    1	31627
Writing mesh to time constant
Wrote mesh in = 0.68 s.
Mesh refined in = 8.27 s.

Morphing phase
--------------


Snapping to features in 10 iterations ...
Constructing mesh displacer ...
Using mesh parameters 
{
    maxNonOrtho     65;
    maxBoundarySkewness 20;
    maxInternalSkewness 4;
    maxConcave      80;
    minFlatness     0.5;
    minVol          1e-13;
    minTetQuality   1e-15;
    minArea         -1;
    minTwist        0.02;
    minDeterminant  0.001;
    minFaceWeight   0.05;
    minVolRatio     0.01;
    minTriangleTwist -1;
    nSmoothScale    4;
    errorReduction  0.75;
    relaxed
    {
        maxNonOrtho     75;
    }
}


Checking initial mesh ...
Checking faces in error :
    non-orthogonality > 65  degrees                        : 0
    faces with face pyramid volume < 1e-13                 : 0
    faces with face-decomposition tet quality < 1e-15      : 0
    faces with concavity > 80  degrees                     : 0
    faces with skewness > 4   (internal) or 20  (boundary) : 0
    faces with interpolation weights (0..1)  < 0.05        : 0
    faces with volume ratio of neighbour cells < 0.01      : 0
    faces with face twist < 0.02                           : 0
    faces on cells with determinant < 0.001                : 0
Detected 0 illegal faces (concave, zero area or negative cell pyramid volume)
Checked initial mesh in = 0.13 s


Smoothing patch points ...
Smoothing iteration 0
Found 0 non-manifold point(s).

Scaling iteration 0
Moving mesh using displacement scaling : min:1  max:1
Checking faces in error :
    non-orthogonality > 65  degrees                        : 0
    faces with face pyramid volume < 1e-13                 : 0
    faces with face-decomposition tet quality < 1e-15      : 0
    faces with concavity > 80  degrees                     : 0
    faces with skewness > 4   (internal) or 20  (boundary) : 0
    faces with interpolation weights (0..1)  < 0.05        : 0
    faces with volume ratio of neighbour cells < 0.01      : 0
    faces with face twist < 0.02                           : 0
    faces on cells with determinant < 0.001                : 0
Successfully moved mesh

Smoothing iteration 1
Found 0 non-manifold point(s).

Scaling iteration 0
Moving mesh using displacement scaling : min:1  max:1
Checking faces in error :
    non-orthogonality > 65  degrees                        : 0
    faces with face pyramid volume < 1e-13                 : 56
    faces with face-decomposition tet quality < 1e-15      : 0
    faces with concavity > 80  degrees                     : 0
    faces with skewness > 4   (internal) or 20  (boundary) : 0
    faces with interpolation weights (0..1)  < 0.05        : 0
    faces with volume ratio of neighbour cells < 0.01      : 0
    faces with face twist < 0.02                           : 0
    faces on cells with determinant < 0.001                : 0

Scaling iteration 1
Moving mesh using displacement scaling : min:0.75  max:1
Checking faces in error :
    non-orthogonality > 65  degrees                        : 0
    faces with face pyramid volume < 1e-13                 : 2
    faces with face-decomposition tet quality < 1e-15      : 0
    faces with concavity > 80  degrees                     : 0
    faces with skewness > 4   (internal) or 20  (boundary) : 0
    faces with interpolation weights (0..1)  < 0.05        : 0
    faces with volume ratio of neighbour cells < 0.01      : 0
    faces with face twist < 0.02                           : 0
    faces on cells with determinant < 0.001                : 0

Scaling iteration 2
Moving mesh using displacement scaling : min:0.5625  max:1
Checking faces in error :
    non-orthogonality > 65  degrees                        : 0
    faces with face pyramid volume < 1e-13                 : 0
    faces with face-decomposition tet quality < 1e-15      : 0
    faces with concavity > 80  degrees                     : 0
    faces with skewness > 4   (internal) or 20  (boundary) : 0
    faces with interpolation weights (0..1)  < 0.05        : 0
    faces with volume ratio of neighbour cells < 0.01      : 0
    faces with face twist < 0.02                           : 0
    faces on cells with determinant < 0.001                : 0
Successfully moved mesh

Smoothing iteration 2
Found 0 non-manifold point(s).

Scaling iteration 0
Moving mesh using displacement scaling : min:1  max:1
Checking faces in error :
    non-orthogonality > 65  degrees                        : 0
    faces with face pyramid volume < 1e-13                 : 151
    faces with face-decomposition tet quality < 1e-15      : 0
    faces with concavity > 80  degrees                     : 0
    faces with skewness > 4   (internal) or 20  (boundary) : 0
    faces with interpolation weights (0..1)  < 0.05        : 0
    faces with volume ratio of neighbour cells < 0.01      : 0
    faces with face twist < 0.02                           : 0
    faces on cells with determinant < 0.001                : 0

Scaling iteration 1
Moving mesh using displacement scaling : min:0.75  max:1
Checking faces in error :
    non-orthogonality > 65  degrees                        : 0
    faces with face pyramid volume < 1e-13                 : 149
    faces with face-decomposition tet quality < 1e-15      : 0
    faces with concavity > 80  degrees                     : 0
    faces with skewness > 4   (internal) or 20  (boundary) : 0
    faces with interpolation weights (0..1)  < 0.05        : 0
    faces with volume ratio of neighbour cells < 0.01      : 0
    faces with face twist < 0.02                           : 0
    faces on cells with determinant < 0.001                : 0

Scaling iteration 2
Moving mesh using displacement scaling : min:0.5625  max:1
Checking faces in error :
    non-orthogonality > 65  degrees                        : 0
    faces with face pyramid volume < 1e-13                 : 93
    faces with face-decomposition tet quality < 1e-15      : 0
    faces with concavity > 80  degrees                     : 0
    faces with skewness > 4   (internal) or 20  (boundary) : 0
    faces with interpolation weights (0..1)  < 0.05        : 0
    faces with volume ratio of neighbour cells < 0.01      : 0
    faces with face twist < 0.02                           : 0
    faces on cells with determinant < 0.001                : 0

Scaling iteration 3
Moving mesh using displacement scaling : min:0.421875  max:1
Checking faces in error :
    non-orthogonality > 65  degrees                        : 0
    faces with face pyramid volume < 1e-13                 : 66
    faces with face-decomposition tet quality < 1e-15      : 0
    faces with concavity > 80  degrees                     : 0
    faces with skewness > 4   (internal) or 20  (boundary) : 0
    faces with interpolation weights (0..1)  < 0.05        : 0
    faces with volume ratio of neighbour cells < 0.01      : 0
    faces with face twist < 0.02                           : 0
    faces on cells with determinant < 0.001                : 0

Scaling iteration 4
Moving mesh using displacement scaling : min:0.31640625  max:1
Checking faces in error :
    non-orthogonality > 65  degrees                        : 0
    faces with face pyramid volume < 1e-13                 : 66
    faces with face-decomposition tet quality < 1e-15      : 0
    faces with concavity > 80  degrees                     : 0
    faces with skewness > 4   (internal) or 20  (boundary) : 0
    faces with interpolation weights (0..1)  < 0.05        : 0
    faces with volume ratio of neighbour cells < 0.01      : 0
    faces with face twist < 0.02                           : 0
    faces on cells with determinant < 0.001                : 0

Scaling iteration 5
Displacement scaling for error reduction set to 0.
Moving mesh using displacement scaling : min:0.2373046875  max:1
Checking faces in error :
    non-orthogonality > 65  degrees                        : 0
    faces with face pyramid volume < 1e-13                 : 57
    faces with face-decomposition tet quality < 1e-15      : 0
    faces with concavity > 80  degrees                     : 0
    faces with skewness > 4   (internal) or 20  (boundary) : 0
    faces with interpolation weights (0..1)  < 0.05        : 0
    faces with volume ratio of neighbour cells < 0.01      : 0
    faces with face twist < 0.02                           : 0
    faces on cells with determinant < 0.001                : 0

Scaling iteration 6
Moving mesh using displacement scaling : min:0  max:1
Checking faces in error :
    non-orthogonality > 65  degrees                        : 0
    faces with face pyramid volume < 1e-13                 : 0
    faces with face-decomposition tet quality < 1e-15      : 0
    faces with concavity > 80  degrees                     : 0
    faces with skewness > 4   (internal) or 20  (boundary) : 0
    faces with interpolation weights (0..1)  < 0.05        : 0
    faces with volume ratio of neighbour cells < 0.01      : 0
    faces with face twist < 0.02                           : 0
    faces on cells with determinant < 0.001                : 0
Successfully moved mesh

Patch points smoothed in = 0.83 s



Morph iteration 0
-----------------
Calculating patchDisplacement as distance to nearest surface point ...
Wanted displacement : average:2.254020742e-05 min:2.606724447e-09 max:8.592491266e-05
Calculated surface displacement in = 0.01 s


Detecting near surfaces ...
Overriding nearest with intersection of close gaps at 29 out of 18674 points.
Overriding displacement on features :
   implicit features    : false
   explicit features    : true
   multi-patch features : false

Detected 0 baffle edges out of 37122 edges.
Initially selected 910 points out of 18674 for reverse attraction.
Selected 2716 points out of 18674 for reverse attraction.
Stringing feature edges : changed 0 points
Attraction:
     linear   : max:(8.203431587e-05 0 2.55628957e-05) avg:(1.227041261e-07 2.270640842e-06 -5.68679421e-06)
     feature  : max:(0 0 0) avg:(0 0 0)
Feature analysis : total master points:18452 attraction to :
    feature point   : 0
    feature edge    : 0
    nearest surface : 0
    rest            : 18452

--> FOAM Warning : Displacement (1.257323195e-06 -5.702825484e-20 -7.752512246e-07) at mesh point 0 coord (-0.004768662717 0.0009499999478 0.0003577870293) points through the surrounding patch faces
Smoothing displacement ...
Iteration 0
Iteration 10
Iteration 20
Displacement smoothed in = 0.13 s


Moving mesh ...

Iteration 0
Moving mesh using displacement scaling : min:1  max:1
Checking faces in error :
    non-orthogonality > 65  degrees                        : 0
    faces with face pyramid volume < 1e-13                 : 0
    faces with face-decomposition tet quality < 1e-15      : 0
    faces with concavity > 80  degrees                     : 0
    faces with skewness > 4   (internal) or 20  (boundary) : 0
    faces with interpolation weights (0..1)  < 0.05        : 0
    faces with volume ratio of neighbour cells < 0.01      : 0
    faces with face twist < 0.02                           : 0
    faces on cells with determinant < 0.001                : 0
Successfully moved mesh
Moved mesh in = 0.11 s



Morph iteration 1
-----------------
Calculating patchDisplacement as distance to nearest surface point ...
Wanted displacement : average:2.063211526e-05 min:4.014026126e-08 max:8.437187952e-05
Calculated surface displacement in = 0.01 s


Detecting near surfaces ...
Overriding nearest with intersection of close gaps at 30 out of 18674 points.
Overriding displacement on features :
   implicit features    : false
   explicit features    : true
   multi-patch features : false

Detected 0 baffle edges out of 37122 edges.
Initially selected 910 points out of 18674 for reverse attraction.
Selected 2716 points out of 18674 for reverse attraction.
Stringing feature edges : changed 0 points
Attraction:
     linear   : max:(8.055160256e-05 0 2.51008641e-05) avg:(1.136079419e-07 2.06499413e-06 -5.143169465e-06)
     feature  : max:(0 0 0) avg:(0 0 0)
Feature analysis : total master points:18452 attraction to :
    feature point   : 0
    feature edge    : 0
    nearest surface : 0
    rest            : 18452

--> FOAM Warning : Displacement (2.308401345e-06 -2.291418984e-19 -1.137661861e-06) at mesh point 0 coord (-0.004767405394 0.0009499999478 0.000357011778) points through the surrounding patch faces
Smoothing displacement ...
Iteration 0
Iteration 10
Iteration 20
Displacement smoothed in = 0.13 s


Moving mesh ...

Iteration 0
Moving mesh using displacement scaling : min:1  max:1
Checking faces in error :
    non-orthogonality > 65  degrees                        : 0
    faces with face pyramid volume < 1e-13                 : 0
    faces with face-decomposition tet quality < 1e-15      : 0
    faces with concavity > 80  degrees                     : 0
    faces with skewness > 4   (internal) or 20  (boundary) : 0
    faces with interpolation weights (0..1)  < 0.05        : 0
    faces with volume ratio of neighbour cells < 0.01      : 0
    faces with face twist < 0.02                           : 0
    faces on cells with determinant < 0.001                : 0
Successfully moved mesh
Moved mesh in = 0.11 s



Morph iteration 2
-----------------
Calculating patchDisplacement as distance to nearest surface point ...
Wanted displacement : average:1.712502255e-05 min:5.195146999e-08 max:8.061727002e-05
Calculated surface displacement in = 0.01 s


Detecting near surfaces ...
Overriding nearest with intersection of close gaps at 31 out of 18674 points.
Overriding displacement on features :
   implicit features    : false
   explicit features    : true
   multi-patch features : false

Detected 0 baffle edges out of 37122 edges.
Initially selected 910 points out of 18674 for reverse attraction.
Selected 2716 points out of 18674 for reverse attraction.
Stringing feature edges : changed 0 points
Attraction:
     linear   : max:(7.696699814e-05 0 2.398385755e-05) avg:(9.352666508e-08 1.685780528e-06 -4.159492103e-06)
     feature  : max:(0 0 0) avg:(0 0 0)
Feature analysis : total master points:18452 attraction to :
    feature point   : 0
    feature edge    : 0
    nearest surface : 0
    rest            : 18452

--> FOAM Warning : Displacement (2.879155219e-06 -4.60719946e-19 -1.052221747e-06) at mesh point 0 coord (-0.004765096993 0.0009499999478 0.0003558741162) points through the surrounding patch faces
Smoothing displacement ...
Iteration 0
Iteration 10
Iteration 20
Displacement smoothed in = 0.13 s


Moving mesh ...

Iteration 0
Moving mesh using displacement scaling : min:1  max:1
Checking faces in error :
    non-orthogonality > 65  degrees                        : 0
    faces with face pyramid volume < 1e-13                 : 6
    faces with face-decomposition tet quality < 1e-15      : 0
    faces with concavity > 80  degrees                     : 0
    faces with skewness > 4   (internal) or 20  (boundary) : 0
    faces with interpolation weights (0..1)  < 0.05        : 0
    faces with volume ratio of neighbour cells < 0.01      : 0
    faces with face twist < 0.02                           : 0
    faces on cells with determinant < 0.001                : 0

Iteration 1
Moving mesh using displacement scaling : min:0.75  max:1
Checking faces in error :
    non-orthogonality > 65  degrees                        : 0
    faces with face pyramid volume < 1e-13                 : 5
    faces with face-decomposition tet quality < 1e-15      : 0
    faces with concavity > 80  degrees                     : 0
    faces with skewness > 4   (internal) or 20  (boundary) : 0
    faces with interpolation weights (0..1)  < 0.05        : 0
    faces with volume ratio of neighbour cells < 0.01      : 0
    faces with face twist < 0.02                           : 0
    faces on cells with determinant < 0.001                : 0

Iteration 2
Moving mesh using displacement scaling : min:0.5625  max:1
Checking faces in error :
    non-orthogonality > 65  degrees                        : 0
    faces with face pyramid volume < 1e-13                 : 4
    faces with face-decomposition tet quality < 1e-15      : 0
    faces with concavity > 80  degrees                     : 0
    faces with skewness > 4   (internal) or 20  (boundary) : 0
    faces with interpolation weights (0..1)  < 0.05        : 0
    faces with volume ratio of neighbour cells < 0.01      : 0
    faces with face twist < 0.02                           : 0
    faces on cells with determinant < 0.001                : 0

Iteration 3
Moving mesh using displacement scaling : min:0.421875  max:1
Checking faces in error :
    non-orthogonality > 65  degrees                        : 0
    faces with face pyramid volume < 1e-13                 : 4
    faces with face-decomposition tet quality < 1e-15      : 0
    faces with concavity > 80  degrees                     : 0
    faces with skewness > 4   (internal) or 20  (boundary) : 0
    faces with interpolation weights (0..1)  < 0.05        : 0
    faces with volume ratio of neighbour cells < 0.01      : 0
    faces with face twist < 0.02                           : 0
    faces on cells with determinant < 0.001                : 0

Iteration 4
Moving mesh using displacement scaling : min:0.31640625  max:1
Checking faces in error :
    non-orthogonality > 65  degrees                        : 0
    faces with face pyramid volume < 1e-13                 : 1
    faces with face-decomposition tet quality < 1e-15      : 0
    faces with concavity > 80  degrees                     : 0
    faces with skewness > 4   (internal) or 20  (boundary) : 0
    faces with interpolation weights (0..1)  < 0.05        : 0
    faces with volume ratio of neighbour cells < 0.01      : 0
    faces with face twist < 0.02                           : 0
    faces on cells with determinant < 0.001                : 0

Iteration 5
Displacement scaling for error reduction set to 0.
Moving mesh using displacement scaling : min:0.2373046875  max:1
Checking faces in error :
    non-orthogonality > 65  degrees                        : 0
    faces with face pyramid volume < 1e-13                 : 1
    faces with face-decomposition tet quality < 1e-15      : 0
    faces with concavity > 80  degrees                     : 0
    faces with skewness > 4   (internal) or 20  (boundary) : 0
    faces with interpolation weights (0..1)  < 0.05        : 0
    faces with volume ratio of neighbour cells < 0.01      : 0
    faces with face twist < 0.02                           : 0
    faces on cells with determinant < 0.001                : 0

Iteration 6
Moving mesh using displacement scaling : min:0  max:1
Checking faces in error :
    non-orthogonality > 65  degrees                        : 0
    faces with face pyramid volume < 1e-13                 : 0
    faces with face-decomposition tet quality < 1e-15      : 0
    faces with concavity > 80  degrees                     : 0
    faces with skewness > 4   (internal) or 20  (boundary) : 0
    faces with interpolation weights (0..1)  < 0.05        : 0
    faces with volume ratio of neighbour cells < 0.01      : 0
    faces with face twist < 0.02                           : 0
    faces on cells with determinant < 0.001                : 0
Successfully moved mesh
Moved mesh in = 0.36 s



Morph iteration 3
-----------------
Calculating patchDisplacement as distance to nearest surface point ...
Wanted displacement : average:1.278616315e-05 min:1.242674475e-08 max:7.423570648e-05
Calculated surface displacement in = 0.01 s


Detecting near surfaces ...
Overriding nearest with intersection of close gaps at 30 out of 18674 points.
Overriding displacement on features :
   implicit features    : false
   explicit features    : true
   multi-patch features : false

Detected 0 baffle edges out of 37122 edges.
Initially selected 910 points out of 18674 for reverse attraction.
Selected 2715 points out of 18674 for reverse attraction.
Stringing feature edges : changed 0 points
Attraction:
     linear   : max:(6.769553153e-05 0 3.046727961e-05) avg:(7.05199719e-08 1.306032645e-06 -2.872253206e-06)
     feature  : max:(0 0 0) avg:(0 0 0)
Feature analysis : total master points:18452 attraction to :
    feature point   : 0
    feature edge    : 0
    nearest surface : 0
    rest            : 18452

--> FOAM Warning : Displacement (2.912989379e-06 -7.752635016e-19 -6.323623798e-07) at mesh point 0 coord (-0.004762217838 0.0009499999478 0.0003548218944) points through the surrounding patch faces
Smoothing displacement ...
Iteration 0
Iteration 10
Iteration 20
Displacement smoothed in = 0.12 s


Moving mesh ...

Iteration 0
Moving mesh using displacement scaling : min:1  max:1
Checking faces in error :
    non-orthogonality > 65  degrees                        : 0
    faces with face pyramid volume < 1e-13                 : 14
    faces with face-decomposition tet quality < 1e-15      : 0
    faces with concavity > 80  degrees                     : 0
    faces with skewness > 4   (internal) or 20  (boundary) : 0
    faces with interpolation weights (0..1)  < 0.05        : 0
    faces with volume ratio of neighbour cells < 0.01      : 0
    faces with face twist < 0.02                           : 0
    faces on cells with determinant < 0.001                : 0

Iteration 1
Moving mesh using displacement scaling : min:0.75  max:1
Checking faces in error :
    non-orthogonality > 65  degrees                        : 0
    faces with face pyramid volume < 1e-13                 : 11
    faces with face-decomposition tet quality < 1e-15      : 0
    faces with concavity > 80  degrees                     : 0
    faces with skewness > 4   (internal) or 20  (boundary) : 0
    faces with interpolation weights (0..1)  < 0.05        : 0
    faces with volume ratio of neighbour cells < 0.01      : 0
    faces with face twist < 0.02                           : 0
    faces on cells with determinant < 0.001                : 0

Iteration 2
Moving mesh using displacement scaling : min:0.5625  max:1
Checking faces in error :
    non-orthogonality > 65  degrees                        : 0
    faces with face pyramid volume < 1e-13                 : 10
    faces with face-decomposition tet quality < 1e-15      : 0
    faces with concavity > 80  degrees                     : 0
    faces with skewness > 4   (internal) or 20  (boundary) : 0
    faces with interpolation weights (0..1)  < 0.05        : 0
    faces with volume ratio of neighbour cells < 0.01      : 0
    faces with face twist < 0.02                           : 0
    faces on cells with determinant < 0.001                : 0

Iteration 3
Moving mesh using displacement scaling : min:0.421875  max:1
Checking faces in error :
    non-orthogonality > 65  degrees                        : 0
    faces with face pyramid volume < 1e-13                 : 9
    faces with face-decomposition tet quality < 1e-15      : 0
    faces with concavity > 80  degrees                     : 0
    faces with skewness > 4   (internal) or 20  (boundary) : 0
    faces with interpolation weights (0..1)  < 0.05        : 0
    faces with volume ratio of neighbour cells < 0.01      : 0
    faces with face twist < 0.02                           : 0
    faces on cells with determinant < 0.001                : 0

Iteration 4
Moving mesh using displacement scaling : min:0.31640625  max:1
Checking faces in error :
    non-orthogonality > 65  degrees                        : 0
    faces with face pyramid volume < 1e-13                 : 9
    faces with face-decomposition tet quality < 1e-15      : 0
    faces with concavity > 80  degrees                     : 0
    faces with skewness > 4   (internal) or 20  (boundary) : 0
    faces with interpolation weights (0..1)  < 0.05        : 0
    faces with volume ratio of neighbour cells < 0.01      : 0
    faces with face twist < 0.02                           : 0
    faces on cells with determinant < 0.001                : 0

Iteration 5
Displacement scaling for error reduction set to 0.
Moving mesh using displacement scaling : min:0.2373046875  max:1
Checking faces in error :
    non-orthogonality > 65  degrees                        : 0
    faces with face pyramid volume < 1e-13                 : 9
    faces with face-decomposition tet quality < 1e-15      : 0
    faces with concavity > 80  degrees                     : 0
    faces with skewness > 4   (internal) or 20  (boundary) : 0
    faces with interpolation weights (0..1)  < 0.05        : 0
    faces with volume ratio of neighbour cells < 0.01      : 0
    faces with face twist < 0.02                           : 0
    faces on cells with determinant < 0.001                : 0

Iteration 6
Moving mesh using displacement scaling : min:0  max:1
Checking faces in error :
    non-orthogonality > 65  degrees                        : 0
    faces with face pyramid volume < 1e-13                 : 0
    faces with face-decomposition tet quality < 1e-15      : 0
    faces with concavity > 80  degrees                     : 0
    faces with skewness > 4   (internal) or 20  (boundary) : 0
    faces with interpolation weights (0..1)  < 0.05        : 0
    faces with volume ratio of neighbour cells < 0.01      : 0
    faces with face twist < 0.02                           : 0
    faces on cells with determinant < 0.001                : 0
Successfully moved mesh
Moved mesh in = 0.39 s



Morph iteration 4
-----------------
Calculating patchDisplacement as distance to nearest surface point ...
Wanted displacement : average:8.516063252e-06 min:1.197215915e-09 max:6.691787175e-05
Calculated surface displacement in = 0.01 s


Detecting near surfaces ...
Overriding nearest with intersection of close gaps at 35 out of 18674 points.
Overriding displacement on features :
   implicit features    : false
   explicit features    : true
   multi-patch features : false

Detected 0 baffle edges out of 37122 edges.
Initially selected 908 points out of 18674 for reverse attraction.
Selected 2705 points out of 18674 for reverse attraction.
Stringing feature edges : changed 0 points
Attraction:
     linear   : max:(6.102239895e-05 0 2.746394702e-05) avg:(4.667460975e-08 8.484828707e-07 -1.744541334e-06)
     feature  : max:(0 0 0) avg:(0 0 0)
Feature analysis : total master points:18452 attraction to :
    feature point   : 0
    feature edge    : 0
    nearest surface : 0
    rest            : 18452

--> FOAM Warning : Displacement (2.57461869e-06 5.706159727e-19 -8.881081882e-08) at mesh point 0 coord (-0.004759304848 0.0009499999478 0.000354189532) points through the surrounding patch faces
Smoothing displacement ...
Iteration 0
Iteration 10
Iteration 20
Displacement smoothed in = 0.13 s


Moving mesh ...

Iteration 0
Moving mesh using displacement scaling : min:1  max:1
Checking faces in error :
    non-orthogonality > 65  degrees                        : 0
    faces with face pyramid volume < 1e-13                 : 16
    faces with face-decomposition tet quality < 1e-15      : 0
    faces with concavity > 80  degrees                     : 0
    faces with skewness > 4   (internal) or 20  (boundary) : 0
    faces with interpolation weights (0..1)  < 0.05        : 0
    faces with volume ratio of neighbour cells < 0.01      : 0
    faces with face twist < 0.02                           : 0
    faces on cells with determinant < 0.001                : 0

Iteration 1
Moving mesh using displacement scaling : min:0.75  max:1
Checking faces in error :
    non-orthogonality > 65  degrees                        : 0
    faces with face pyramid volume < 1e-13                 : 16
    faces with face-decomposition tet quality < 1e-15      : 0
    faces with concavity > 80  degrees                     : 0
    faces with skewness > 4   (internal) or 20  (boundary) : 0
    faces with interpolation weights (0..1)  < 0.05        : 0
    faces with volume ratio of neighbour cells < 0.01      : 0
    faces with face twist < 0.02                           : 0
    faces on cells with determinant < 0.001                : 0

Iteration 2
Moving mesh using displacement scaling : min:0.5625  max:1
Checking faces in error :
    non-orthogonality > 65  degrees                        : 0
    faces with face pyramid volume < 1e-13                 : 16
    faces with face-decomposition tet quality < 1e-15      : 0
    faces with concavity > 80  degrees                     : 0
    faces with skewness > 4   (internal) or 20  (boundary) : 0
    faces with interpolation weights (0..1)  < 0.05        : 0
    faces with volume ratio of neighbour cells < 0.01      : 0
    faces with face twist < 0.02                           : 0
    faces on cells with determinant < 0.001                : 0

Iteration 3
Moving mesh using displacement scaling : min:0.421875  max:1
Checking faces in error :
    non-orthogonality > 65  degrees                        : 0
    faces with face pyramid volume < 1e-13                 : 16
    faces with face-decomposition tet quality < 1e-15      : 0
    faces with concavity > 80  degrees                     : 0
    faces with skewness > 4   (internal) or 20  (boundary) : 0
    faces with interpolation weights (0..1)  < 0.05        : 0
    faces with volume ratio of neighbour cells < 0.01      : 0
    faces with face twist < 0.02                           : 0
    faces on cells with determinant < 0.001                : 0

Iteration 4
Moving mesh using displacement scaling : min:0.31640625  max:1
Checking faces in error :
    non-orthogonality > 65  degrees                        : 0
    faces with face pyramid volume < 1e-13                 : 16
    faces with face-decomposition tet quality < 1e-15      : 0
    faces with concavity > 80  degrees                     : 0
    faces with skewness > 4   (internal) or 20  (boundary) : 0
    faces with interpolation weights (0..1)  < 0.05        : 0
    faces with volume ratio of neighbour cells < 0.01      : 0
    faces with face twist < 0.02                           : 0
    faces on cells with determinant < 0.001                : 0

Iteration 5
Displacement scaling for error reduction set to 0.
Moving mesh using displacement scaling : min:0.2373046875  max:1
Checking faces in error :
    non-orthogonality > 65  degrees                        : 0
    faces with face pyramid volume < 1e-13                 : 16
    faces with face-decomposition tet quality < 1e-15      : 0
    faces with concavity > 80  degrees                     : 0
    faces with skewness > 4   (internal) or 20  (boundary) : 0
    faces with interpolation weights (0..1)  < 0.05        : 0
    faces with volume ratio of neighbour cells < 0.01      : 0
    faces with face twist < 0.02                           : 0
    faces on cells with determinant < 0.001                : 0

Iteration 6
Moving mesh using displacement scaling : min:0  max:1
Checking faces in error :
    non-orthogonality > 65  degrees                        : 0
    faces with face pyramid volume < 1e-13                 : 0
    faces with face-decomposition tet quality < 1e-15      : 0
    faces with concavity > 80  degrees                     : 0
    faces with skewness > 4   (internal) or 20  (boundary) : 0
    faces with interpolation weights (0..1)  < 0.05        : 0
    faces with volume ratio of neighbour cells < 0.01      : 0
    faces with face twist < 0.02                           : 0
    faces on cells with determinant < 0.001                : 0
Successfully moved mesh
Moved mesh in = 0.39 s



Morph iteration 5
-----------------
Calculating patchDisplacement as distance to nearest surface point ...
Wanted displacement : average:5.082746158e-06 min:9.804151544e-10 max:5.722820236e-05
Calculated surface displacement in = 0.01 s


Detecting near surfaces ...
Overriding nearest with intersection of close gaps at 33 out of 18674 points.
Overriding displacement on features :
   implicit features    : false
   explicit features    : true
   multi-patch features : false

Detected 0 baffle edges out of 37122 edges.
Initially selected 908 points out of 18674 for reverse attraction.
Selected 2705 points out of 18674 for reverse attraction.
Stringing feature edges : changed 0 points
Attraction:
     linear   : max:(5.218639064e-05 0 2.348718327e-05) avg:(2.557603975e-08 4.629679411e-07 -9.003754796e-07)
     feature  : max:(0 0 0) avg:(0 0 0)
Feature analysis : total master points:18452 attraction to :
    feature point   : 0
    feature edge    : 0
    nearest surface : 0
    rest            : 18452

--> FOAM Warning : Displacement (2.120323835e-06 5.253031146e-18 3.647111526e-07) at mesh point 0 coord (-0.00475673023 0.0009499999478 0.0003541007212) points through the surrounding patch faces
Smoothing displacement ...
Iteration 0
Iteration 10
Iteration 20
Displacement smoothed in = 0.13 s


Moving mesh ...

Iteration 0
Moving mesh using displacement scaling : min:1  max:1
Checking faces in error :
    non-orthogonality > 65  degrees                        : 0
    faces with face pyramid volume < 1e-13                 : 20
    faces with face-decomposition tet quality < 1e-15      : 0
    faces with concavity > 80  degrees                     : 0
    faces with skewness > 4   (internal) or 20  (boundary) : 0
    faces with interpolation weights (0..1)  < 0.05        : 0
    faces with volume ratio of neighbour cells < 0.01      : 0
    faces with face twist < 0.02                           : 0
    faces on cells with determinant < 0.001                : 0

Iteration 1
Moving mesh using displacement scaling : min:0.75  max:1
Checking faces in error :
    non-orthogonality > 65  degrees                        : 0
    faces with face pyramid volume < 1e-13                 : 18
    faces with face-decomposition tet quality < 1e-15      : 0
    faces with concavity > 80  degrees                     : 0
    faces with skewness > 4   (internal) or 20  (boundary) : 0
    faces with interpolation weights (0..1)  < 0.05        : 0
    faces with volume ratio of neighbour cells < 0.01      : 0
    faces with face twist < 0.02                           : 0
    faces on cells with determinant < 0.001                : 0

Iteration 2
Moving mesh using displacement scaling : min:0.5625  max:1
Checking faces in error :
    non-orthogonality > 65  degrees                        : 0
    faces with face pyramid volume < 1e-13                 : 18
    faces with face-decomposition tet quality < 1e-15      : 0
    faces with concavity > 80  degrees                     : 0
    faces with skewness > 4   (internal) or 20  (boundary) : 0
    faces with interpolation weights (0..1)  < 0.05        : 0
    faces with volume ratio of neighbour cells < 0.01      : 0
    faces with face twist < 0.02                           : 0
    faces on cells with determinant < 0.001                : 0

Iteration 3
Moving mesh using displacement scaling : min:0.421875  max:1
Checking faces in error :
    non-orthogonality > 65  degrees                        : 0
    faces with face pyramid volume < 1e-13                 : 18
    faces with face-decomposition tet quality < 1e-15      : 0
    faces with concavity > 80  degrees                     : 0
    faces with skewness > 4   (internal) or 20  (boundary) : 0
    faces with interpolation weights (0..1)  < 0.05        : 0
    faces with volume ratio of neighbour cells < 0.01      : 0
    faces with face twist < 0.02                           : 0
    faces on cells with determinant < 0.001                : 0

Iteration 4
Moving mesh using displacement scaling : min:0.31640625  max:1
Checking faces in error :
    non-orthogonality > 65  degrees                        : 0
    faces with face pyramid volume < 1e-13                 : 18
    faces with face-decomposition tet quality < 1e-15      : 0
    faces with concavity > 80  degrees                     : 0
    faces with skewness > 4   (internal) or 20  (boundary) : 0
    faces with interpolation weights (0..1)  < 0.05        : 0
    faces with volume ratio of neighbour cells < 0.01      : 0
    faces with face twist < 0.02                           : 0
    faces on cells with determinant < 0.001                : 0

Iteration 5
Displacement scaling for error reduction set to 0.
Moving mesh using displacement scaling : min:0.2373046875  max:1
Checking faces in error :
    non-orthogonality > 65  degrees                        : 0
    faces with face pyramid volume < 1e-13                 : 18
    faces with face-decomposition tet quality < 1e-15      : 0
    faces with concavity > 80  degrees                     : 0
    faces with skewness > 4   (internal) or 20  (boundary) : 0
    faces with interpolation weights (0..1)  < 0.05        : 0
    faces with volume ratio of neighbour cells < 0.01      : 0
    faces with face twist < 0.02                           : 0
    faces on cells with determinant < 0.001                : 0

Iteration 6
Moving mesh using displacement scaling : min:0  max:1
Checking faces in error :
    non-orthogonality > 65  degrees                        : 0
    faces with face pyramid volume < 1e-13                 : 0
    faces with face-decomposition tet quality < 1e-15      : 0
    faces with concavity > 80  degrees                     : 0
    faces with skewness > 4   (internal) or 20  (boundary) : 0
    faces with interpolation weights (0..1)  < 0.05        : 0
    faces with volume ratio of neighbour cells < 0.01      : 0
    faces with face twist < 0.02                           : 0
    faces on cells with determinant < 0.001                : 0
Successfully moved mesh
Moved mesh in = 0.41 s



Morph iteration 6
-----------------
Calculating patchDisplacement as distance to nearest surface point ...
Wanted displacement : average:2.786254079e-06 min:8.025995281e-10 max:4.799639165e-05
Calculated surface displacement in = 0.01 s


Detecting near surfaces ...
Overriding nearest with intersection of close gaps at 38 out of 18674 points.
Overriding displacement on features :
   implicit features    : false
   explicit features    : true
   multi-patch features : false

Detected 0 baffle edges out of 37122 edges.
Initially selected 908 points out of 18674 for reverse attraction.
Selected 2703 points out of 18674 for reverse attraction.
Stringing feature edges : changed 0 points
Attraction:
     linear   : max:(0 4.799639165e-05 2.168404345e-19) avg:(1.159593356e-08 2.147639387e-07 -3.776278973e-07)
     feature  : max:(0 0 0) avg:(0 0 0)
Feature analysis : total master points:18452 attraction to :
    feature point   : 0
    feature edge    : 0
    nearest surface : 0
    rest            : 18452

--> FOAM Warning : Displacement (1.715458746e-06 3.679992579e-18 5.938385328e-07) at mesh point 0 coord (-0.004754609906 0.0009499999478 0.0003544654324) points through the surrounding patch faces
Smoothing displacement ...
Iteration 0
Iteration 10
Iteration 20
Displacement smoothed in = 0.12 s


Moving mesh ...

Iteration 0
Moving mesh using displacement scaling : min:1  max:1
Checking faces in error :
    non-orthogonality > 65  degrees                        : 0
    faces with face pyramid volume < 1e-13                 : 34
    faces with face-decomposition tet quality < 1e-15      : 0
    faces with concavity > 80  degrees                     : 0
    faces with skewness > 4   (internal) or 20  (boundary) : 0
    faces with interpolation weights (0..1)  < 0.05        : 0
    faces with volume ratio of neighbour cells < 0.01      : 0
    faces with face twist < 0.02                           : 0
    faces on cells with determinant < 0.001                : 0

Iteration 1
Moving mesh using displacement scaling : min:0.75  max:1
Checking faces in error :
    non-orthogonality > 65  degrees                        : 0
    faces with face pyramid volume < 1e-13                 : 29
    faces with face-decomposition tet quality < 1e-15      : 0
    faces with concavity > 80  degrees                     : 0
    faces with skewness > 4   (internal) or 20  (boundary) : 0
    faces with interpolation weights (0..1)  < 0.05        : 0
    faces with volume ratio of neighbour cells < 0.01      : 0
    faces with face twist < 0.02                           : 0
    faces on cells with determinant < 0.001                : 0

Iteration 2
Moving mesh using displacement scaling : min:0.5625  max:1
Checking faces in error :
    non-orthogonality > 65  degrees                        : 0
    faces with face pyramid volume < 1e-13                 : 26
    faces with face-decomposition tet quality < 1e-15      : 0
    faces with concavity > 80  degrees                     : 0
    faces with skewness > 4   (internal) or 20  (boundary) : 0
    faces with interpolation weights (0..1)  < 0.05        : 0
    faces with volume ratio of neighbour cells < 0.01      : 0
    faces with face twist < 0.02                           : 0
    faces on cells with determinant < 0.001                : 0

Iteration 3
Moving mesh using displacement scaling : min:0.421875  max:1
Checking faces in error :
    non-orthogonality > 65  degrees                        : 0
    faces with face pyramid volume < 1e-13                 : 25
    faces with face-decomposition tet quality < 1e-15      : 0
    faces with concavity > 80  degrees                     : 0
    faces with skewness > 4   (internal) or 20  (boundary) : 0
    faces with interpolation weights (0..1)  < 0.05        : 0
    faces with volume ratio of neighbour cells < 0.01      : 0
    faces with face twist < 0.02                           : 0
    faces on cells with determinant < 0.001                : 0

Iteration 4
Moving mesh using displacement scaling : min:0.31640625  max:1
Checking faces in error :
    non-orthogonality > 65  degrees                        : 0
    faces with face pyramid volume < 1e-13                 : 25
    faces with face-decomposition tet quality < 1e-15      : 0
    faces with concavity > 80  degrees                     : 0
    faces with skewness > 4   (internal) or 20  (boundary) : 0
    faces with interpolation weights (0..1)  < 0.05        : 0
    faces with volume ratio of neighbour cells < 0.01      : 0
    faces with face twist < 0.02                           : 0
    faces on cells with determinant < 0.001                : 0

Iteration 5
Displacement scaling for error reduction set to 0.
Moving mesh using displacement scaling : min:0.2373046875  max:1
Checking faces in error :
    non-orthogonality > 65  degrees                        : 0
    faces with face pyramid volume < 1e-13                 : 25
    faces with face-decomposition tet quality < 1e-15      : 0
    faces with concavity > 80  degrees                     : 0
    faces with skewness > 4   (internal) or 20  (boundary) : 0
    faces with interpolation weights (0..1)  < 0.05        : 0
    faces with volume ratio of neighbour cells < 0.01      : 0
    faces with face twist < 0.02                           : 0
    faces on cells with determinant < 0.001                : 0

Iteration 6
Moving mesh using displacement scaling : min:0  max:1
Checking faces in error :
    non-orthogonality > 65  degrees                        : 0
    faces with face pyramid volume < 1e-13                 : 0
    faces with face-decomposition tet quality < 1e-15      : 0
    faces with concavity > 80  degrees                     : 0
    faces with skewness > 4   (internal) or 20  (boundary) : 0
    faces with interpolation weights (0..1)  < 0.05        : 0
    faces with volume ratio of neighbour cells < 0.01      : 0
    faces with face twist < 0.02                           : 0
    faces on cells with determinant < 0.001                : 0
Successfully moved mesh
Moved mesh in = 0.46 s



Morph iteration 7
-----------------
Calculating patchDisplacement as distance to nearest surface point ...
Wanted displacement : average:1.462114736e-06 min:3.585008288e-10 max:4.580869736e-05
Calculated surface displacement in = 0.01 s


Detecting near surfaces ...
Overriding nearest with intersection of close gaps at 36 out of 18674 points.
Overriding displacement on features :
   implicit features    : false
   explicit features    : true
   multi-patch features : false

Detected 0 baffle edges out of 37122 edges.
Initially selected 908 points out of 18674 for reverse attraction.
Selected 2703 points out of 18674 for reverse attraction.
Stringing feature edges : changed 0 points
Attraction:
     linear   : max:(0 4.580869736e-05 0) avg:(2.240588462e-09 8.073809843e-08 -1.254835049e-07)
     feature  : max:(0 0 0) avg:(0 0 0)
Feature analysis : total master points:18452 attraction to :
    feature point   : 0
    feature edge    : 0
    nearest surface : 0
    rest            : 18452

--> FOAM Warning : Displacement (1.345181553e-06 -4.241137307e-18 5.834814843e-07) at mesh point 0 coord (-0.004752894447 0.0009499999478 0.0003550592709) points through the surrounding patch faces
Smoothing displacement ...
Iteration 0
Iteration 10
Iteration 20
Displacement smoothed in = 0.13 s


Moving mesh ...

Iteration 0
Moving mesh using displacement scaling : min:1  max:1
Checking faces in error :
    non-orthogonality > 65  degrees                        : 0
    faces with face pyramid volume < 1e-13                 : 43
    faces with face-decomposition tet quality < 1e-15      : 0
    faces with concavity > 80  degrees                     : 0
    faces with skewness > 4   (internal) or 20  (boundary) : 0
    faces with interpolation weights (0..1)  < 0.05        : 0
    faces with volume ratio of neighbour cells < 0.01      : 0
    faces with face twist < 0.02                           : 0
    faces on cells with determinant < 0.001                : 0

Iteration 1
Moving mesh using displacement scaling : min:0.75  max:1
Checking faces in error :
    non-orthogonality > 65  degrees                        : 0
    faces with face pyramid volume < 1e-13                 : 35
    faces with face-decomposition tet quality < 1e-15      : 0
    faces with concavity > 80  degrees                     : 0
    faces with skewness > 4   (internal) or 20  (boundary) : 0
    faces with interpolation weights (0..1)  < 0.05        : 0
    faces with volume ratio of neighbour cells < 0.01      : 0
    faces with face twist < 0.02                           : 0
    faces on cells with determinant < 0.001                : 0

Iteration 2
Moving mesh using displacement scaling : min:0.5625  max:1
Checking faces in error :
    non-orthogonality > 65  degrees                        : 0
    faces with face pyramid volume < 1e-13                 : 32
    faces with face-decomposition tet quality < 1e-15      : 0
    faces with concavity > 80  degrees                     : 0
    faces with skewness > 4   (internal) or 20  (boundary) : 0
    faces with interpolation weights (0..1)  < 0.05        : 0
    faces with volume ratio of neighbour cells < 0.01      : 0
    faces with face twist < 0.02                           : 0
    faces on cells with determinant < 0.001                : 0

Iteration 3
Moving mesh using displacement scaling : min:0.421875  max:1
Checking faces in error :
    non-orthogonality > 65  degrees                        : 0
    faces with face pyramid volume < 1e-13                 : 29
    faces with face-decomposition tet quality < 1e-15      : 0
    faces with concavity > 80  degrees                     : 0
    faces with skewness > 4   (internal) or 20  (boundary) : 0
    faces with interpolation weights (0..1)  < 0.05        : 0
    faces with volume ratio of neighbour cells < 0.01      : 0
    faces with face twist < 0.02                           : 0
    faces on cells with determinant < 0.001                : 0

Iteration 4
Moving mesh using displacement scaling : min:0.31640625  max:1
Checking faces in error :
    non-orthogonality > 65  degrees                        : 0
    faces with face pyramid volume < 1e-13                 : 28
    faces with face-decomposition tet quality < 1e-15      : 0
    faces with concavity > 80  degrees                     : 0
    faces with skewness > 4   (internal) or 20  (boundary) : 0
    faces with interpolation weights (0..1)  < 0.05        : 0
    faces with volume ratio of neighbour cells < 0.01      : 0
    faces with face twist < 0.02                           : 0
    faces on cells with determinant < 0.001                : 0

Iteration 5
Displacement scaling for error reduction set to 0.
Moving mesh using displacement scaling : min:0.2373046875  max:1
Checking faces in error :
    non-orthogonality > 65  degrees                        : 0
    faces with face pyramid volume < 1e-13                 : 27
    faces with face-decomposition tet quality < 1e-15      : 0
    faces with concavity > 80  degrees                     : 0
    faces with skewness > 4   (internal) or 20  (boundary) : 0
    faces with interpolation weights (0..1)  < 0.05        : 0
    faces with volume ratio of neighbour cells < 0.01      : 0
    faces with face twist < 0.02                           : 0
    faces on cells with determinant < 0.001                : 0

Iteration 6
Moving mesh using displacement scaling : min:0  max:1
Checking faces in error :
    non-orthogonality > 65  degrees                        : 0
    faces with face pyramid volume < 1e-13                 : 1
    faces with face-decomposition tet quality < 1e-15      : 0
    faces with concavity > 80  degrees                     : 0
    faces with skewness > 4   (internal) or 20  (boundary) : 0
    faces with interpolation weights (0..1)  < 0.05        : 0
    faces with volume ratio of neighbour cells < 0.01      : 0
    faces with face twist < 0.02                           : 0
    faces on cells with determinant < 0.001                : 0

Iteration 7
Moving mesh using displacement scaling : min:0  max:1
Checking faces in error :
    non-orthogonality > 65  degrees                        : 0
    faces with face pyramid volume < 1e-13                 : 0
    faces with face-decomposition tet quality < 1e-15      : 0
    faces with concavity > 80  degrees                     : 0
    faces with skewness > 4   (internal) or 20  (boundary) : 0
    faces with interpolation weights (0..1)  < 0.05        : 0
    faces with volume ratio of neighbour cells < 0.01      : 0
    faces with face twist < 0.02                           : 0
    faces on cells with determinant < 0.001                : 0
Successfully moved mesh
Moved mesh in = 0.47 s



Morph iteration 8
-----------------
Calculating patchDisplacement as distance to nearest surface point ...
Wanted displacement : average:7.651409996e-07 min:1.504632053e-11 max:4.580869736e-05
Calculated surface displacement in = 0 s


Detecting near surfaces ...
Overriding nearest with intersection of close gaps at 38 out of 18674 points.
Overriding displacement on features :
   implicit features    : false
   explicit features    : true
   multi-patch features : false

Detected 0 baffle edges out of 37122 edges.
Initially selected 908 points out of 18674 for reverse attraction.
Selected 2703 points out of 18674 for reverse attraction.
Stringing feature edges : changed 0 points
Attraction:
     linear   : max:(0 4.580869736e-05 0) avg:(-2.246881257e-09 2.489056021e-08 -3.474574929e-08)
     feature  : max:(0 0 0) avg:(0 0 0)
Feature analysis : total master points:18452 attraction to :
    feature point   : 0
    feature edge    : 0
    nearest surface : 0
    rest            : 18452

--> FOAM Warning : Displacement (9.210077282e-07 -5.904271885e-18 4.219075376e-07) at mesh point 0 coord (-0.004751549266 0.0009499999478 0.0003556427524) points through the surrounding patch faces
Smoothing displacement ...
Iteration 0
Iteration 10
Iteration 20
Displacement smoothed in = 0.13 s


Moving mesh ...

Iteration 0
Moving mesh using displacement scaling : min:1  max:1
Checking faces in error :
    non-orthogonality > 65  degrees                        : 0
    faces with face pyramid volume < 1e-13                 : 62
    faces with face-decomposition tet quality < 1e-15      : 0
    faces with concavity > 80  degrees                     : 0
    faces with skewness > 4   (internal) or 20  (boundary) : 0
    faces with interpolation weights (0..1)  < 0.05        : 0
    faces with volume ratio of neighbour cells < 0.01      : 0
    faces with face twist < 0.02                           : 0
    faces on cells with determinant < 0.001                : 0

Iteration 1
Moving mesh using displacement scaling : min:0.75  max:1
Checking faces in error :
    non-orthogonality > 65  degrees                        : 0
    faces with face pyramid volume < 1e-13                 : 52
    faces with face-decomposition tet quality < 1e-15      : 0
    faces with concavity > 80  degrees                     : 0
    faces with skewness > 4   (internal) or 20  (boundary) : 0
    faces with interpolation weights (0..1)  < 0.05        : 0
    faces with volume ratio of neighbour cells < 0.01      : 0
    faces with face twist < 0.02                           : 0
    faces on cells with determinant < 0.001                : 0

Iteration 2
Moving mesh using displacement scaling : min:0.5625  max:1
Checking faces in error :
    non-orthogonality > 65  degrees                        : 0
    faces with face pyramid volume < 1e-13                 : 44
    faces with face-decomposition tet quality < 1e-15      : 0
    faces with concavity > 80  degrees                     : 0
    faces with skewness > 4   (internal) or 20  (boundary) : 0
    faces with interpolation weights (0..1)  < 0.05        : 0
    faces with volume ratio of neighbour cells < 0.01      : 0
    faces with face twist < 0.02                           : 0
    faces on cells with determinant < 0.001                : 0

Iteration 3
Moving mesh using displacement scaling : min:0.421875  max:1
Checking faces in error :
    non-orthogonality > 65  degrees                        : 0
    faces with face pyramid volume < 1e-13                 : 38
    faces with face-decomposition tet quality < 1e-15      : 0
    faces with concavity > 80  degrees                     : 0
    faces with skewness > 4   (internal) or 20  (boundary) : 0
    faces with interpolation weights (0..1)  < 0.05        : 0
    faces with volume ratio of neighbour cells < 0.01      : 0
    faces with face twist < 0.02                           : 0
    faces on cells with determinant < 0.001                : 0

Iteration 4
Moving mesh using displacement scaling : min:0.31640625  max:1
Checking faces in error :
    non-orthogonality > 65  degrees                        : 0
    faces with face pyramid volume < 1e-13                 : 34
    faces with face-decomposition tet quality < 1e-15      : 0
    faces with concavity > 80  degrees                     : 0
    faces with skewness > 4   (internal) or 20  (boundary) : 0
    faces with interpolation weights (0..1)  < 0.05        : 0
    faces with volume ratio of neighbour cells < 0.01      : 0
    faces with face twist < 0.02                           : 0
    faces on cells with determinant < 0.001                : 0

Iteration 5
Displacement scaling for error reduction set to 0.
Moving mesh using displacement scaling : min:0.2373046875  max:1
Checking faces in error :
    non-orthogonality > 65  degrees                        : 0
    faces with face pyramid volume < 1e-13                 : 32
    faces with face-decomposition tet quality < 1e-15      : 0
    faces with concavity > 80  degrees                     : 0
    faces with skewness > 4   (internal) or 20  (boundary) : 0
    faces with interpolation weights (0..1)  < 0.05        : 0
    faces with volume ratio of neighbour cells < 0.01      : 0
    faces with face twist < 0.02                           : 0
    faces on cells with determinant < 0.001                : 0

Iteration 6
Moving mesh using displacement scaling : min:0  max:1
Checking faces in error :
    non-orthogonality > 65  degrees                        : 0
    faces with face pyramid volume < 1e-13                 : 0
    faces with face-decomposition tet quality < 1e-15      : 0
    faces with concavity > 80  degrees                     : 0
    faces with skewness > 4   (internal) or 20  (boundary) : 0
    faces with interpolation weights (0..1)  < 0.05        : 0
    faces with volume ratio of neighbour cells < 0.01      : 0
    faces with face twist < 0.02                           : 0
    faces on cells with determinant < 0.001                : 0
Successfully moved mesh
Moved mesh in = 0.43 s



Morph iteration 9
-----------------
Calculating patchDisplacement as distance to nearest surface point ...
Wanted displacement : average:4.108644019e-07 min:2.2442612e-12 max:4.580869736e-05
Calculated surface displacement in = 0.01 s


Detecting near surfaces ...
Overriding nearest with intersection of close gaps at 39 out of 18674 points.
Overriding displacement on features :
   implicit features    : false
   explicit features    : true
   multi-patch features : false

Detected 0 baffle edges out of 37122 edges.
Initially selected 908 points out of 18674 for reverse attraction.
Selected 2703 points out of 18674 for reverse attraction.
Stringing feature edges : changed 0 points
Attraction:
     linear   : max:(0 4.580869736e-05 0) avg:(-3.945949521e-09 6.920716789e-09 -1.057145073e-08)
     feature  : max:(0 0 0) avg:(0 0 0)
Feature analysis : total master points:18452 attraction to :
    feature point   : 0
    feature edge    : 0
    nearest surface : 0
    rest            : 18452

--> FOAM Warning : Displacement (6.284105168e-07 3.252606517e-19 -1.626303259e-19) at mesh point 0 coord (-0.004750628258 0.0009499999478 0.0003560646599) points through the surrounding patch faces
Smoothing displacement ...
Iteration 0
Iteration 10
Iteration 20
Displacement smoothed in = 0.11 s


Moving mesh ...

Iteration 0
Moving mesh using displacement scaling : min:1  max:1
Checking faces in error :
    non-orthogonality > 65  degrees                        : 0
    faces with face pyramid volume < 1e-13                 : 77
    faces with face-decomposition tet quality < 1e-15      : 0
    faces with concavity > 80  degrees                     : 0
    faces with skewness > 4   (internal) or 20  (boundary) : 0
    faces with interpolation weights (0..1)  < 0.05        : 0
    faces with volume ratio of neighbour cells < 0.01      : 0
    faces with face twist < 0.02                           : 0
    faces on cells with determinant < 0.001                : 0

Iteration 1
Moving mesh using displacement scaling : min:0.75  max:1
Checking faces in error :
    non-orthogonality > 65  degrees                        : 0
    faces with face pyramid volume < 1e-13                 : 60
    faces with face-decomposition tet quality < 1e-15      : 0
    faces with concavity > 80  degrees                     : 0
    faces with skewness > 4   (internal) or 20  (boundary) : 0
    faces with interpolation weights (0..1)  < 0.05        : 0
    faces with volume ratio of neighbour cells < 0.01      : 0
    faces with face twist < 0.02                           : 0
    faces on cells with determinant < 0.001                : 0

Iteration 2
Moving mesh using displacement scaling : min:0.5625  max:1
Checking faces in error :
    non-orthogonality > 65  degrees                        : 0
    faces with face pyramid volume < 1e-13                 : 54
    faces with face-decomposition tet quality < 1e-15      : 0
    faces with concavity > 80  degrees                     : 0
    faces with skewness > 4   (internal) or 20  (boundary) : 0
    faces with interpolation weights (0..1)  < 0.05        : 0
    faces with volume ratio of neighbour cells < 0.01      : 0
    faces with face twist < 0.02                           : 0
    faces on cells with determinant < 0.001                : 0

Iteration 3
Moving mesh using displacement scaling : min:0.421875  max:1
Checking faces in error :
    non-orthogonality > 65  degrees                        : 0
    faces with face pyramid volume < 1e-13                 : 46
    faces with face-decomposition tet quality < 1e-15      : 0
    faces with concavity > 80  degrees                     : 0
    faces with skewness > 4   (internal) or 20  (boundary) : 0
    faces with interpolation weights (0..1)  < 0.05        : 0
    faces with volume ratio of neighbour cells < 0.01      : 0
    faces with face twist < 0.02                           : 0
    faces on cells with determinant < 0.001                : 0

Iteration 4
Moving mesh using displacement scaling : min:0.31640625  max:1
Checking faces in error :
    non-orthogonality > 65  degrees                        : 0
    faces with face pyramid volume < 1e-13                 : 45
    faces with face-decomposition tet quality < 1e-15      : 0
    faces with concavity > 80  degrees                     : 0
    faces with skewness > 4   (internal) or 20  (boundary) : 0
    faces with interpolation weights (0..1)  < 0.05        : 0
    faces with volume ratio of neighbour cells < 0.01      : 0
    faces with face twist < 0.02                           : 0
    faces on cells with determinant < 0.001                : 0

Iteration 5
Displacement scaling for error reduction set to 0.
Moving mesh using displacement scaling : min:0.2373046875  max:1
Checking faces in error :
    non-orthogonality > 65  degrees                        : 0
    faces with face pyramid volume < 1e-13                 : 41
    faces with face-decomposition tet quality < 1e-15      : 0
    faces with concavity > 80  degrees                     : 0
    faces with skewness > 4   (internal) or 20  (boundary) : 0
    faces with interpolation weights (0..1)  < 0.05        : 0
    faces with volume ratio of neighbour cells < 0.01      : 0
    faces with face twist < 0.02                           : 0
    faces on cells with determinant < 0.001                : 0

Iteration 6
Moving mesh using displacement scaling : min:0  max:1
Checking faces in error :
    non-orthogonality > 65  degrees                        : 0
    faces with face pyramid volume < 1e-13                 : 0
    faces with face-decomposition tet quality < 1e-15      : 0
    faces with concavity > 80  degrees                     : 0
    faces with skewness > 4   (internal) or 20  (boundary) : 0
    faces with interpolation weights (0..1)  < 0.05        : 0
    faces with volume ratio of neighbour cells < 0.01      : 0
    faces with face twist < 0.02                           : 0
    faces on cells with determinant < 0.001                : 0
Successfully moved mesh
Moved mesh in = 0.44 s


Repatching faces according to nearest surface ...
Repatched 7 faces in = 0.03 s


Edge intersection testing:
    Number of edges             : 153702
    Number of edges to retest   : 74526
    Number of intersected edges : 18448
Merging 205 sets of faces.

Edge intersection testing:
    Number of edges             : 153497
    Number of edges to retest   : 849
    Number of intersected edges : 18243

Undo iteration 0
----------------
Checking faces in error :
    non-orthogonality > 65  degrees                        : 0
    faces with face pyramid volume < 1e-13                 : 0
    faces with face-decomposition tet quality < 1e-15      : 0
    faces with concavity > 80  degrees                     : 0
    faces with skewness > 4   (internal) or 20  (boundary) : 0
    faces with interpolation weights (0..1)  < 0.05        : 0
    faces with volume ratio of neighbour cells < 0.01      : 0
    faces with face twist < 0.02                           : 0
    faces on cells with determinant < 0.001                : 0

Merging all points on surface that
- are used by only two boundary faces and
- make an angle with a cosine of more than 0.8660254038.

Removing 170 straight edge points ...

Edge intersection testing:
    Number of edges             : 153497
    Number of edges to retest   : 849
    Number of intersected edges : 18243

Undo iteration 0
----------------
Checking faces in error :
    non-orthogonality > 65  degrees                        : 0
    faces with face pyramid volume < 1e-13                 : 0
    faces with face-decomposition tet quality < 1e-15      : 0
    faces with concavity > 80  degrees                     : 0
    faces with skewness > 4   (internal) or 20  (boundary) : 0
    faces with interpolation weights (0..1)  < 0.05        : 0
    faces with volume ratio of neighbour cells < 0.01      : 0
    faces with face twist < 0.02                           : 0
    faces on cells with determinant < 0.001                : 0
Snapped mesh : cells:46195  faces:153497  points:61239
Cells per refinement level:
    0	14568
    1	31627
Writing mesh to time constant
Wrote mesh in = 0.66 s.
Mesh snapped in = 6.57 s.

Shrinking and layer addition phase
----------------------------------

Using mesh parameters 
{
    maxNonOrtho     65;
    maxBoundarySkewness 20;
    maxInternalSkewness 4;
    maxConcave      80;
    minFlatness     0.5;
    minVol          1e-13;
    minTetQuality   1e-15;
    minArea         -1;
    minTwist        0.02;
    minDeterminant  0.001;
    minFaceWeight   0.05;
    minVolRatio     0.01;
    minTriangleTwist -1;
[...]
ExecutionTime = 4.86 s  ClockTime = 5 s

Time = 42

smoothSolver:  Solving for Ux, Initial residual = 0.02507348317, Final residual = 0.0015404711, No Iterations 4
smoothSolver:  Solving for Uy, Initial residual = 0.008404501151, Final residual = 0.0005322221673, No Iterations 4
smoothSolver:  Solving for Uz, Initial residual = 0.04737608303, Final residual = 0.002636045864, No Iterations 4
smoothSolver:  Solving for T, Initial residual = 0.01316159337, Final residual = 0.0006257362448, No Iterations 3
GAMG:  Solving for p_rgh, Initial residual = 0.1515201042, Final residual = 0.0006188580335, No Iterations 4
time step continuity errors : sum local = 0.02186612109, global = -0.0002940820862, cumulative = -0.007291646279
ExecutionTime = 4.93 s  ClockTime = 5 s

Time = 43

smoothSolver:  Solving for Ux, Initial residual = 0.02265738806, Final residual = 0.001367366285, No Iterations 4
smoothSolver:  Solving for Uy, Initial residual = 0.007649159558, Final residual = 0.0004898311009, No Iterations 4
smoothSolver:  Solving for Uz, Initial residual = 0.042023631, Final residual = 0.00229089648, No Iterations 4
smoothSolver:  Solving for T, Initial residual = 0.01285703275, Final residual = 0.0006206508267, No Iterations 3
GAMG:  Solving for p_rgh, Initial residual = 0.1371847023, Final residual = 0.0004554869243, No Iterations 4
time step continuity errors : sum local = 0.01608475418, global = 1.497768188e-05, cumulative = -0.007276668598
ExecutionTime = 5.01 s  ClockTime = 5 s

Time = 44

smoothSolver:  Solving for Ux, Initial residual = 0.02052916736, Final residual = 0.001224808502, No Iterations 4
smoothSolver:  Solving for Uy, Initial residual = 0.006963126422, Final residual = 0.0004517659665, No Iterations 4
smoothSolver:  Solving for Uz, Initial residual = 0.03710228289, Final residual = 0.001991395263, No Iterations 4
smoothSolver:  Solving for T, Initial residual = 0.01259131384, Final residual = 0.0006178267222, No Iterations 3
GAMG:  Solving for p_rgh, Initial residual = 0.1251868124, Final residual = 0.0003827814983, No Iterations 4
time step continuity errors : sum local = 0.01346647751, global = 0.0003521001071, cumulative = -0.00692456849
ExecutionTime = 5.22 s  ClockTime = 6 s

Time = 45

smoothSolver:  Solving for Ux, Initial residual = 0.01865086599, Final residual = 0.00110647442, No Iterations 4
smoothSolver:  Solving for Uy, Initial residual = 0.006348296877, Final residual = 0.0004182191607, No Iterations 4
smoothSolver:  Solving for Uz, Initial residual = 0.03254257343, Final residual = 0.001734361859, No Iterations 4
smoothSolver:  Solving for T, Initial residual = 0.01233399397, Final residual = 0.0006149004091, No Iterations 3
GAMG:  Solving for p_rgh, Initial residual = 0.1144886117, Final residual = 0.000338788518, No Iterations 4
time step continuity errors : sum local = 0.01185800271, global = 0.0001599729446, cumulative = -0.006764595546
ExecutionTime = 5.3 s  ClockTime = 6 s

Time = 46

smoothSolver:  Solving for Ux, Initial residual = 0.01689973871, Final residual = 0.001006183724, No Iterations 4
smoothSolver:  Solving for Uy, Initial residual = 0.005791647466, Final residual = 0.0003887516243, No Iterations 4
smoothSolver:  Solving for Uz, Initial residual = 0.0285676829, Final residual = 0.001523488141, No Iterations 4
smoothSolver:  Solving for T, Initial residual = 0.01210791178, Final residual = 0.0006130611707, No Iterations 3
GAMG:  Solving for p_rgh, Initial residual = 0.1042185589, Final residual = 0.0003172102106, No Iterations 4
time step continuity errors : sum local = 0.01103940739, global = 0.0001430476799, cumulative = -0.006621547866
ExecutionTime = 5.38 s  ClockTime = 6 s

Time = 47

smoothSolver:  Solving for Ux, Initial residual = 0.01532822472, Final residual = 0.0009226847379, No Iterations 4
smoothSolver:  Solving for Uy, Initial residual = 0.005304879121, Final residual = 0.0003640345155, No Iterations 4
smoothSolver:  Solving for Uz, Initial residual = 0.02539930104, Final residual = 0.001357338631, No Iterations 4
smoothSolver:  Solving for T, Initial residual = 0.01188745521, Final residual = 0.000612456854, No Iterations 3
GAMG:  Solving for p_rgh, Initial residual = 0.09389712426, Final residual = 0.0002968331001, No Iterations 4
time step continuity errors : sum local = 0.01027198528, global = 7.141494691e-05, cumulative = -0.006550132919
ExecutionTime = 5.45 s  ClockTime = 6 s

Time = 48

smoothSolver:  Solving for Ux, Initial residual = 0.01391615274, Final residual = 0.0008497814109, No Iterations 4
smoothSolver:  Solving for Uy, Initial residual = 0.004887747655, Final residual = 0.000343621081, No Iterations 4
smoothSolver:  Solving for Uz, Initial residual = 0.02287739152, Final residual = 0.001228340569, No Iterations 4
smoothSolver:  Solving for T, Initial residual = 0.01168544321, Final residual = 0.0006135892733, No Iterations 3
GAMG:  Solving for p_rgh, Initial residual = 0.08454217657, Final residual = 0.0002822991959, No Iterations 4
time step continuity errors : sum local = 0.009713197613, global = 0.0002293880877, cumulative = -0.006320744831
ExecutionTime = 5.66 s  ClockTime = 6 s

Time = 49

smoothSolver:  Solving for Ux, Initial residual = 0.01270122786, Final residual = 0.0007845705999, No Iterations 4
smoothSolver:  Solving for Uy, Initial residual = 0.004523797976, Final residual = 0.0003261414476, No Iterations 4
smoothSolver:  Solving for Uz, Initial residual = 0.02083189985, Final residual = 0.001123124262, No Iterations 4
smoothSolver:  Solving for T, Initial residual = 0.0114801579, Final residual = 0.0006104831781, No Iterations 3
GAMG:  Solving for p_rgh, Initial residual = 0.07566115364, Final residual = 0.0002723501293, No Iterations 4
time step continuity errors : sum local = 0.009319107037, global = -5.534668814e-05, cumulative = -0.006376091519
ExecutionTime = 5.74 s  ClockTime = 6 s

Time = 50

smoothSolver:  Solving for Ux, Initial residual = 0.01164707621, Final residual = 0.0007267936503, No Iterations 4
smoothSolver:  Solving for Uy, Initial residual = 0.004218022106, Final residual = 0.0003120485002, No Iterations 4
smoothSolver:  Solving for Uz, Initial residual = 0.0190818148, Final residual = 0.001031760174, No Iterations 4
smoothSolver:  Solving for T, Initial residual = 0.01129503157, Final residual = 0.0006098542045, No Iterations 3
GAMG:  Solving for p_rgh, Initial residual = 0.06742560344, Final residual = 0.0002624251306, No Iterations 4
time step continuity errors : sum local = 0.008931678063, global = -0.0002810851382, cumulative = -0.006657176658
ExecutionTime = 5.82 s  ClockTime = 6 s

End

Finalising parallel run
/*---------------------------------------------------------------------------*\
| =========                 |                                                 |
| \\      /  F ield         | OpenFOAM: The Open Source CFD Toolbox           |
|  \\    /   O peration     | Version:  4.1                                   |
|   \\  /    A nd           | Web:      www.OpenFOAM.org                      |
|    \\/     M anipulation  |                                                 |
\*---------------------------------------------------------------------------*/
Build  : 4.1
Exec   : reconstructPar -withZero
Date   : Oct 02 2017
Time   : 22:36:28
Host   : "ced4af2d38bb"
PID    : 174
Case   : //scratch
nProcs : 1
sigFpe : Enabling floating point exception trapping (FOAM_SIGFPE).
fileModificationChecking : Monitoring run-time modified files using timeStampMaster
allowSystemOperations : Allowing user-supplied system call operations

// * * * * * * * * * * * * * * * * * * * * * * * * * * * * * * * * * * * * * //
Create time



Reconstructing fields for mesh region0

Time = 0

Reconstructing FV fields

    Reconstructing volScalarFields

        T
        alphat
        p_rgh

    Reconstructing volVectorFields

        U

Reconstructing point fields

No point fields

No lagrangian fields

Time = 4

Reconstructing FV fields

    Reconstructing volScalarFields

        alphat
        p
        T
        p_rgh

    Reconstructing volVectorFields

        U

    Reconstructing surfaceScalarFields

        phi

Reconstructing point fields

No point fields

No lagrangian fields

Time = 8

Reconstructing FV fields

    Reconstructing volScalarFields

        alphat
        p
        T
        p_rgh

    Reconstructing volVectorFields

        U

    Reconstructing surfaceScalarFields

        phi

Reconstructing point fields

No point fields

No lagrangian fields

Time = 12

Reconstructing FV fields

    Reconstructing volScalarFields

        alphat
        p
        T
        p_rgh

    Reconstructing volVectorFields

        U

    Reconstructing surfaceScalarFields

        phi

Reconstructing point fields

No point fields

No lagrangian fields

Time = 16

Reconstructing FV fields

    Reconstructing volScalarFields

        alphat
        p
        T
        p_rgh

    Reconstructing volVectorFields

        U

    Reconstructing surfaceScalarFields

        phi

Reconstructing point fields

No point fields

No lagrangian fields

Time = 20

Reconstructing FV fields

    Reconstructing volScalarFields

        alphat
        p
        T
        p_rgh

    Reconstructing volVectorFields

        U

    Reconstructing surfaceScalarFields

        phi

Reconstructing point fields

No point fields

No lagrangian fields

Time = 24

Reconstructing FV fields

    Reconstructing volScalarFields

        alphat
        p
        T
        p_rgh

    Reconstructing volVectorFields

        U

    Reconstructing surfaceScalarFields

        phi

Reconstructing point fields

No point fields

No lagrangian fields

Time = 28

Reconstructing FV fields

    Reconstructing volScalarFields

        alphat
        p
        T
        p_rgh

    Reconstructing volVectorFields

        U

    Reconstructing surfaceScalarFields

        phi

Reconstructing point fields

No point fields

No lagrangian fields

Time = 32

Reconstructing FV fields

    Reconstructing volScalarFields

        alphat
        p
        T
        p_rgh

    Reconstructing volVectorFields

        U

    Reconstructing surfaceScalarFields

        phi

Reconstructing point fields

No point fields

No lagrangian fields

Time = 36

Reconstructing FV fields

    Reconstructing volScalarFields

        alphat
        p
        T
        p_rgh

    Reconstructing volVectorFields

        U

    Reconstructing surfaceScalarFields

        phi

Reconstructing point fields

No point fields

No lagrangian fields

Time = 40

Reconstructing FV fields

    Reconstructing volScalarFields

        alphat
        p
        T
        p_rgh

    Reconstructing volVectorFields

        U

    Reconstructing surfaceScalarFields

        phi

Reconstructing point fields

No point fields

No lagrangian fields

Time = 44

Reconstructing FV fields

    Reconstructing volScalarFields

        alphat
        p
        T
        p_rgh

    Reconstructing volVectorFields

        U

    Reconstructing surfaceScalarFields

        phi

Reconstructing point fields

No point fields

No lagrangian fields

Time = 48

Reconstructing FV fields

    Reconstructing volScalarFields

        alphat
        p
        T
        p_rgh

    Reconstructing volVectorFields

        U

    Reconstructing surfaceScalarFields

        phi

Reconstructing point fields

No point fields

No lagrangian fields


End

/*---------------------------------------------------------------------------*\
| =========                 |                                                 |
| \\      /  F ield         | OpenFOAM: The Open Source CFD Toolbox           |
|  \\    /   O peration     | Version:  4.1                                   |
|   \\  /    A nd           | Web:      www.OpenFOAM.org                      |
|    \\/     M anipulation  |                                                 |
\*---------------------------------------------------------------------------*/
Build  : 4.1
Exec   : foamToVTK -useTimeName
Date   : Oct 02 2017
Time   : 22:36:34
Host   : "ced4af2d38bb"
PID    : 175
Case   : //scratch
nProcs : 1
sigFpe : Enabling floating point exception trapping (FOAM_SIGFPE).
fileModificationChecking : Monitoring run-time modified files using timeStampMaster
allowSystemOperations : Allowing user-supplied system call operations

// * * * * * * * * * * * * * * * * * * * * * * * * * * * * * * * * * * * * * //
Create time

Create mesh for time = 0

Time: 0
    volScalarFields            : T alphat p_rgh
    volVectorFields            : U

    Internal  : "//scratch/VTK/scratch_0.vtk"
    Original cells:46195 points:60797   Additional cells:44804  additional points:3731

    Patch     : "//scratch/VTK/body/body_0.vtk"
    Patch     : "//scratch/VTK/inlet/inlet_0.vtk"
    Patch     : "//scratch/VTK/outlet/outlet_0.vtk"
Time: 4
    volScalarFields            : alphat p T p_rgh
    volVectorFields            : U

    Internal  : "//scratch/VTK/scratch_4.vtk"
    Patch     : "//scratch/VTK/body/body_4.vtk"
    Patch     : "//scratch/VTK/inlet/inlet_4.vtk"
    Patch     : "//scratch/VTK/outlet/outlet_4.vtk"
    surfScalarFields  : phi
Time: 8
    volScalarFields            : alphat p T p_rgh
    volVectorFields            : U

    Internal  : "//scratch/VTK/scratch_8.vtk"
    Patch     : "//scratch/VTK/body/body_8.vtk"
    Patch     : "//scratch/VTK/inlet/inlet_8.vtk"
    Patch     : "//scratch/VTK/outlet/outlet_8.vtk"
    surfScalarFields  : phi
Time: 12
    volScalarFields            : alphat p T p_rgh
    volVectorFields            : U

    Internal  : "//scratch/VTK/scratch_12.vtk"
    Patch     : "//scratch/VTK/body/body_12.vtk"
    Patch     : "//scratch/VTK/inlet/inlet_12.vtk"
    Patch     : "//scratch/VTK/outlet/outlet_12.vtk"
    surfScalarFields  : phi
Time: 16
    volScalarFields            : alphat p T p_rgh
    volVectorFields            : U

    Internal  : "//scratch/VTK/scratch_16.vtk"
    Patch     : "//scratch/VTK/body/body_16.vtk"
    Patch     : "//scratch/VTK/inlet/inlet_16.vtk"
    Patch     : "//scratch/VTK/outlet/outlet_16.vtk"
    surfScalarFields  : phi
Time: 20
    volScalarFields            : alphat p T p_rgh
    volVectorFields            : U

    Internal  : "//scratch/VTK/scratch_20.vtk"
    Patch     : "//scratch/VTK/body/body_20.vtk"
    Patch     : "//scratch/VTK/inlet/inlet_20.vtk"
    Patch     : "//scratch/VTK/outlet/outlet_20.vtk"
    surfScalarFields  : phi
Time: 24
    volScalarFields            : alphat p T p_rgh
    volVectorFields            : U

    Internal  : "//scratch/VTK/scratch_24.vtk"
    Patch     : "//scratch/VTK/body/body_24.vtk"
    Patch     : "//scratch/VTK/inlet/inlet_24.vtk"
    Patch     : "//scratch/VTK/outlet/outlet_24.vtk"
    surfScalarFields  : phi
Time: 28
    volScalarFields            : alphat p T p_rgh
    volVectorFields            : U

    Internal  : "//scratch/VTK/scratch_28.vtk"
    Patch     : "//scratch/VTK/body/body_28.vtk"
    Patch     : "//scratch/VTK/inlet/inlet_28.vtk"
    Patch     : "//scratch/VTK/outlet/outlet_28.vtk"
    surfScalarFields  : phi
Time: 32
    volScalarFields            : alphat p T p_rgh
    volVectorFields            : U

    Internal  : "//scratch/VTK/scratch_32.vtk"
    Patch     : "//scratch/VTK/body/body_32.vtk"
    Patch     : "//scratch/VTK/inlet/inlet_32.vtk"
    Patch     : "//scratch/VTK/outlet/outlet_32.vtk"
    surfScalarFields  : phi
Time: 36
    volScalarFields            : alphat p T p_rgh
    volVectorFields            : U

    Internal  : "//scratch/VTK/scratch_36.vtk"
    Patch     : "//scratch/VTK/body/body_36.vtk"
    Patch     : "//scratch/VTK/inlet/inlet_36.vtk"
    Patch     : "//scratch/VTK/outlet/outlet_36.vtk"
    surfScalarFields  : phi
Time: 40
    volScalarFields            : alphat p T p_rgh
    volVectorFields            : U

    Internal  : "//scratch/VTK/scratch_40.vtk"
    Patch     : "//scratch/VTK/body/body_40.vtk"
    Patch     : "//scratch/VTK/inlet/inlet_40.vtk"
    Patch     : "//scratch/VTK/outlet/outlet_40.vtk"
    surfScalarFields  : phi
Time: 44
    volScalarFields            : alphat p T p_rgh
    volVectorFields            : U

    Internal  : "//scratch/VTK/scratch_44.vtk"
    Patch     : "//scratch/VTK/body/body_44.vtk"
    Patch     : "//scratch/VTK/inlet/inlet_44.vtk"
    Patch     : "//scratch/VTK/outlet/outlet_44.vtk"
    surfScalarFields  : phi
Time: 48
    volScalarFields            : alphat p T p_rgh
    volVectorFields            : U

    Internal  : "//scratch/VTK/scratch_48.vtk"
    Patch     : "//scratch/VTK/body/body_48.vtk"
    Patch     : "//scratch/VTK/inlet/inlet_48.vtk"
    Patch     : "//scratch/VTK/outlet/outlet_48.vtk"
    surfScalarFields  : phi
End

body/
body/body_20.vtk
body/body_12.vtk
body/body_36.vtk
body/body_8.vtk
body/body_28.vtk
body/body_48.vtk
body/body_16.vtk
body/body_0.vtk
body/body_24.vtk
body/body_32.vtk
body/body_40.vtk
body/body_4.vtk
body/body_44.vtk
Extracting OpenFOAM Results...
docker run --rm -i --user root -v /home/ubuntu/alvaro/fsi/workflow/swiftwork/main-run002/jobs/r/runOpenFOAM-480dhren-0:/scratch -w /scratch parallelworks/openfoam:4.1_paraview ./models/mexdex/extract.sh /opt/paraview540/bin models/mexdex/extract.py models/openfoam/system/controlDict models/openfoam/kpi.json results/case_0/openfoam/png results/case_0/openfoam/metrics.csv
['models/mexdex/extract.py', 'models/openfoam/system/controlDict', 'models/openfoam/kpi.json', 'results/case_0/openfoam/png', 'results/case_0/openfoam/metrics.csv']
{'stl': {'bodyopacity': '0.8', 'image': 'iso', 'imageflip': 'false', 'type': 'Basic'}, 'fluid_T': {'opacity': '0.8', 'invertcolor': '0', 'ComponentTitle': '', 'LabelFormat': '%4.3g', 'colorscale': 'Black-Body Radiation', 'max': '400', 'image': 'iso', 'min': '300', 'animation': 'true', 'extractStats': 'true', 'FontColor': '0.0 0.0 .0', 'field': 'T', 'plane': 'Z', 'FontSize': '14', 'discretecolors': '15', 'bodyopacity': '0.0', 'position': 'center center 0.00125', 'barTitle': 'Temperature (K)', 'type': 'Clip', 'invert': 'true'}}
openFOAM
Setting view to latest Time: 48.0
Generating KPIs
Warning: In /home/buildslave/dashboards/buildbot/paraview-pvbinsdash-linux-shared-release_superbuild/source-paraview/VTK/Rendering/Core/vtkRenderer.cxx, line 1126
vtkOpenGLRenderer (0x4c52a40): Resetting view-up since view plane normal is parallel

results/case_0/openfoam/png/animFrames/out_fluid_T.0000.png PNG 700x600 700x600+0+0 8-bit sRGB 1.263MB 0.010u 0:00.019
results/case_0/openfoam/png/animFrames/out_fluid_T.0001.png PNG 700x600 700x600+0+0 8-bit sRGB 1.263MB 0.000u 0:00.000
results/case_0/openfoam/png/animFrames/out_fluid_T.0002.png PNG 700x600 700x600+0+0 8-bit sRGB 1.263MB 0.020u 0:00.009
results/case_0/openfoam/png/animFrames/out_fluid_T.0003.png PNG 700x600 700x600+0+0 8-bit sRGB 1.263MB 0.000u 0:00.010
results/case_0/openfoam/png/animFrames/out_fluid_T.0004.png PNG 700x600 700x600+0+0 8-bit sRGB 1.263MB 0.010u 0:00.009
results/case_0/openfoam/png/animFrames/out_fluid_T.0005.png PNG 700x600 700x600+0+0 8-bit sRGB 1.263MB 0.010u 0:00.010
results/case_0/openfoam/png/animFrames/out_fluid_T.0006.png PNG 700x600 700x600+0+0 8-bit sRGB 1.263MB 0.010u 0:00.009
results/case_0/openfoam/png/animFrames/out_fluid_T.0007.png PNG 700x600 700x600+0+0 8-bit sRGB 1.263MB 0.010u 0:00.010
results/case_0/openfoam/png/animFrames/out_fluid_T.0008.png PNG 700x600 700x600+0+0 8-bit sRGB 1.263MB 0.010u 0:00.000
results/case_0/openfoam/png/animFrames/out_fluid_T.0009.png PNG 700x600 700x600+0+0 8-bit sRGB 1.263MB 0.000u 0:00.010
results/case_0/openfoam/png/animFrames/out_fluid_T.0010.png PNG 700x600 700x600+0+0 8-bit sRGB 1.263MB 0.010u 0:00.009
results/case_0/openfoam/png/animFrames/out_fluid_T.0011.png PNG 700x600 700x600+0+0 8-bit sRGB 1.263MB 0.020u 0:00.010
results/case_0/openfoam/png/animFrames/out_fluid_T.0000.png=>results/case_0/openfoam/png/out_fluid_T.gif[0] PNG 700x600 700x600+0+0 8-bit Palette sRGB 179c 132KB 21.240u 0:21.089
stl
fluid_T
